** ----------------------------------------------------
** Material definition:
*MATERIAL, NAME=BONE
*ELASTIC
18000, 0.3, 0
*SOLID SECTION, ELSET=SET1, MATERIAL=BONE
** ---------------------------------------------------
** Analysis definition. The Step module defines the analysis steps and associated output requests.
** More info at:
** https://abaqus-docs.mit.edu/2017/English/SIMACAECAERefMap/simacae-m-Sim-sb.htm#simacae-m-Sim-sb
** ---------------------------------------------------
*STEP
*STATIC
** All displacements fixed at bottom:
*BOUNDARY
NODES_B, 1, 3, 0.0
** Vertical displacement imposed at top:
*BOUNDARY
NODES_T, 3, 3, -0.02
** ---------------------------------------------------
** Output request:
*NODE FILE, OUTPUT=2D
U
*NODE PRINT, TOTALS=ONLY, NSET=NODES_B
RF
*EL FILE, OUTPUT=2D
S
*END STEP
