** ---------------------------------------------------
** bone.inp
** material property definition with E=f(GV) and nu=0.3
** ---------------------------------------------------
** Material definition:
*SOLID SECTION, ELSET=SetName, MATERIAL=MatName
1.
*MATERIAL,NAME=MatName
*ELASTIC
18000.*(GV/250.)**2.5, 0.3
