** ---------------------------------------------------
** PMMA.inp
** ---------------------------------------------------
** Material definition:
*SOLID SECTION, ELSET=SetName, MATERIAL=MatName
1.
*MATERIAL, NAME=MatName
*ELASTIC
4500., 0.3
